[General]
network = meshnetwork
sim-time-limit = 10s